300
Frame 7
 Li         4.437360000000        1.493930000000       15.000000000000
 Li         2.191220000000        3.095900000000       15.000000000000
 Li         1.926950000000        0.349703000000       15.000000000000
 Li        -1.434080000000        3.475100000000       21.679800000000
 Li         0.326542000000        2.038580000000       22.133700000000
 Li         0.962496000000        4.711940000000       21.857300000000
 Li         1.146340000000        1.547810000000       17.686400000000
 Li         3.790070000000        0.218857000000       17.686400000000
 Li         3.619110000000        3.172870000000       17.686400000000
 Li         1.879410000000        3.424940000000       19.061800000000
 Li        -1.075250000000        4.538830000000       19.066600000000
 Li        -0.744555000000        1.893170000000       19.481800000000
 Li         0.000000000000        0.000000000000       16.472700000000
 Li        -0.041026600000       -0.160545000000       20.436000000000
 Cr         2.777780000000        1.721620000000       20.658400000000
 Cr        -0.000000000000        3.293020000000       16.219400000000
 N          4.371970000000        1.506710000000       21.308300000000
 N          2.874620000000        1.773310000000       18.927500000000
 N         -1.658640000000        3.392740000000       15.688200000000
 N          0.742962000000        1.806730000000       15.688200000000
 N          0.915682000000        4.679590000000       15.688200000000
 N          1.808830000000        0.285939000000       21.080300000000
 N          2.029070000000        3.127130000000       21.260000000000
 N         -0.000000000000        3.293020000000       17.962100000000
 O          0.160888000000       -0.148685000000       18.567000000000
 Li         4.280010000000        1.561100000000       23.676700000000
 Li         2.216520000000        3.225300000000       23.273700000000
 Li         1.815650000000        0.205141000000       23.123000000000
 Li        -2.003190000000        3.707500000000       30.341600000000
 Li         0.672062000000        2.204070000000       30.403800000000
 Li         0.863193000000        4.886860000000       30.571900000000
 Li         0.845798000000        1.667390000000       26.166500000000
 Li         3.730950000000        0.325189000000       26.396300000000
 Li         3.395210000000        3.083020000000       26.427800000000
 Li         1.241390000000        3.633580000000       28.014600000000
 Li        -1.298190000000        4.615870000000       28.146600000000
 Li        -1.121510000000        1.872300000000       27.655100000000
 Li        -0.010717900000       -0.035607400000       24.637400000000
 Li        16.968300000000        0.217503000000       29.024300000000
 Cr         2.675010000000        1.772920000000       29.032700000000
 Cr        -0.161645000000        3.217690000000       24.725300000000
 N          4.375800000000        1.508810000000       29.519700000000
 N          2.468580000000        1.799000000000       27.356500000000
 N         -1.730110000000        3.316080000000       24.163500000000
 N          0.873077000000        1.913100000000       24.209500000000
 N          0.857441000000        4.654210000000       24.133000000000
 N          1.728130000000        0.553962000000       29.844400000000
 N          2.241990000000        3.320780000000       29.881200000000
 N         -0.206766000000        3.385380000000       26.505400000000
 O         16.886100000000        0.247632000000       27.151300000000
 Li         1.585520000000        6.433470000000       15.000000000000
 Li        -0.660622000000        8.035430000000       15.000000000000
 Li        -0.924893000000        5.289240000000       15.000000000000
 Li        -4.265580000000        8.291660000000       21.432800000000
 Li        -2.256530000000        6.669810000000       21.675800000000
 Li        -2.046740000000        9.488520000000       22.128700000000
 Li        -1.705500000000        6.487340000000       17.686400000000
 Li         0.938231000000        5.158390000000       17.686400000000
 Li         0.767269000000        8.112400000000       17.686400000000
 Li        -1.203380000000        8.352010000000       19.082600000000
 Li        -3.523600000000        9.858300000000       19.151100000000
 Li        -3.593800000000        6.521920000000       19.143900000000
 Li        -2.851840000000        4.939530000000       16.472700000000
 Li        -2.751640000000        4.881740000000       20.528600000000
 Cr        -0.046337200000        6.634510000000       20.463200000000
 Cr        -2.851840000000        8.232550000000       16.219400000000
 N          1.569090000000        6.542820000000       21.213400000000
 N         -0.083926300000        6.475490000000       18.716700000000
 N         -4.510480000000        8.332270000000       15.688200000000
 N         -2.108880000000        6.746270000000       15.688200000000
 N         -1.936160000000        9.619120000000       15.688200000000
 N         -0.916348000000        5.261930000000       20.977200000000
 N         -0.887841000000        8.115190000000       21.145000000000
 N         -2.851840000000        8.232550000000       17.962100000000
 O         14.261000000000        4.844320000000       18.326600000000
 Li         1.685650000000        6.322080000000       23.394100000000
 Li        -0.653116000000        7.914890000000       23.475400000000
 Li        -0.862971000000        5.102280000000       23.301800000000
 Li        -4.632080000000        8.526350000000       30.264500000000
 Li        -2.233900000000        6.854280000000       30.695500000000
 Li        -2.245150000000        9.824430000000       30.663300000000
 Li        -1.530380000000        6.260500000000       26.060500000000
 Li         0.885277000000        4.766100000000       26.306000000000
 Li         0.635454000000        8.065480000000       26.548300000000
 Li        -1.436920000000        8.527040000000       28.110500000000
 Li         1.715220000000       -0.208461000000       27.693800000000
 Li        -3.669980000000        6.755680000000       27.762400000000
 Li        -2.921530000000        5.110890000000       24.615900000000
 Li        13.921500000000        5.103860000000       29.123700000000
 Cr        -0.049573600000        6.706670000000       29.382600000000
 Cr        -2.862860000000        8.217320000000       24.560200000000
 N          1.694740000000        6.566690000000       30.071900000000
 N          0.027108400000        6.565580000000       27.652600000000
 N         -4.459420000000        8.161820000000       23.895500000000
 N         -1.964420000000        6.844550000000       23.946600000000
 N         -1.933600000000        9.624730000000       24.037700000000
 N         -1.051590000000        5.368430000000       29.942900000000
 N         -0.881770000000        8.094920000000       30.032600000000
 N         -3.076980000000        8.587030000000       26.230400000000
 O         14.393600000000        5.118700000000       26.863000000000
 Li        10.141000000000        1.493930000000       15.000000000000
 Li         7.894900000000        3.095900000000       15.000000000000
 Li         7.630630000000        0.349703000000       15.000000000000
 Li         4.059600000000        3.520940000000       21.781600000000
 Li         6.082490000000        1.684390000000       22.091300000000
 Li         6.679040000000        4.532630000000       21.968500000000
 Li         6.850020000000        1.547810000000       17.686400000000
 Li         9.493750000000        0.218857000000       17.686400000000
 Li         9.322790000000        3.172870000000       17.686400000000
 Li         7.414510000000        3.162200000000       19.488800000000
 Li         4.696580000000        4.559480000000       19.003500000000
 Li         5.110020000000        1.938630000000       19.333700000000
 Li         5.703680000000        0.000000000000       16.472700000000
 Li         0.142574000000        9.759980000000       20.355400000000
 Cr         8.560530000000        1.638220000000       20.896400000000
 Cr         5.703680000000        3.293020000000       16.219400000000
 N         10.191700000000        1.440680000000       21.325000000000
 N          8.434170000000        1.742270000000       19.009600000000
 N          4.045040000000        3.392740000000       15.688200000000
 N          6.446640000000        1.806730000000       15.688200000000
 N          6.619360000000        4.679590000000       15.688200000000
 N          7.663070000000        0.269272000000       21.575000000000
 N          7.699810000000        3.017660000000       21.284500000000
 N          5.703680000000        3.293020000000       17.962100000000
 O          0.137590000000        9.689030000000       18.409400000000
 Li         5.711420000000        9.824050000000       24.726100000000
 Li         7.613460000000        3.012120000000       23.548500000000
 Li        10.131400000000        1.405940000000       23.460200000000
 Li         4.112430000000        3.684240000000       30.343800000000
 Li         6.259860000000        1.883410000000       30.208500000000
 Li         6.647790000000        4.742130000000       30.407300000000
 Li         6.840580000000        1.633700000000       26.094800000000
 Li         1.729290000000        9.706660000000       27.572400000000
 Li         9.284780000000        3.302450000000       26.046400000000
 Li         7.058840000000        3.133070000000       27.737100000000
 Li         4.660200000000        4.760800000000       27.946200000000
 Li         4.963710000000        1.736380000000       27.769900000000
 Li         7.609250000000        0.618242000000       23.570800000000
 Li         0.019786100000        9.607270000000       29.205000000000
 Cr         8.449690000000        1.702180000000       29.190400000000
 Cr         5.527850000000        3.320510000000       24.914700000000
 N         10.135800000000        1.835780000000       29.481500000000
 N          8.318070000000        1.687600000000       27.440400000000
 N          3.908300000000        3.327570000000       24.350700000000
 N          6.181230000000        1.669810000000       24.175000000000
 N          6.545620000000        4.620190000000       24.426800000000
 N          7.730310000000        0.148901000000       29.790000000000
 N          7.607860000000        3.123460000000       29.691800000000
 N          5.465320000000        3.207240000000       26.590100000000
 O         -0.153052000000        9.529750000000       27.300600000000
 Li         7.289200000000        6.433470000000       15.000000000000
 Li         5.043060000000        8.035430000000       15.000000000000
 Li         4.778790000000        5.289240000000       15.000000000000
 Li         1.371620000000        8.189510000000       21.915200000000
 Li         3.571430000000        6.883040000000       21.744800000000
 Li         3.726060000000        9.588170000000       22.086000000000
 Li         3.998180000000        6.487340000000       17.686400000000
 Li         6.641910000000        5.158390000000       17.686400000000
 Li         6.470950000000        8.112400000000       17.686400000000
 Li         4.230840000000        8.546600000000       19.227600000000
 Li         1.975270000000        9.699000000000       19.062800000000
 Li         2.018210000000        6.916170000000       19.210200000000
 Li         2.851840000000        4.939530000000       16.472700000000
 Li         3.006570000000        4.846940000000       20.478000000000
 Cr         5.803260000000        6.574350000000       20.735600000000
 Cr         2.851840000000        8.232550000000       16.219400000000
 N          7.477100000000        6.445880000000       21.241600000000
 N          5.594450000000        6.617180000000       19.114400000000
 N          1.193200000000        8.332270000000       15.688200000000
 N          3.594800000000        6.746270000000       15.688200000000
 N          3.767520000000        9.619120000000       15.688200000000
 N          4.812570000000        5.135690000000       21.170200000000
 N          5.056430000000        8.075900000000       21.320700000000
 N          2.851840000000        8.232550000000       17.962100000000
 O          2.997960000000        4.895890000000       18.439600000000
 Li         7.096220000000        6.394400000000       23.722500000000
 Li         5.041980000000        7.817530000000       23.550400000000
 Li         4.654380000000        5.216750000000       23.486500000000
 Li         1.370130000000        8.341620000000       30.354100000000
 Li         3.586790000000        6.473760000000       30.767100000000
 Li         3.720460000000        9.720410000000       30.230200000000
 Li         4.088060000000        6.626120000000       26.643900000000
 Li         6.565360000000        5.057240000000       26.543800000000
 Li         6.589930000000        7.856160000000       26.344200000000
 Li         4.524270000000        8.147350000000       27.887600000000
 Li        -0.322756000000        9.412680000000       24.726800000000
 Li         1.874150000000        6.447610000000       27.474800000000
 Li         2.767930000000        4.985060000000       25.143400000000
 Li         2.627470000000        5.027170000000       29.029200000000
 Cr         5.609000000000        6.628490000000       29.364600000000
 Cr         2.728880000000        8.127370000000       24.888200000000
 N          7.269190000000        6.585090000000       30.030400000000
 N          5.585040000000        6.532190000000       27.592300000000
 N          1.046730000000        8.299320000000       24.216300000000
 N          3.599740000000        6.787650000000       24.185100000000
 N          3.847200000000        9.444610000000       24.308400000000
 N          5.008500000000        5.148450000000       30.043300000000
 N          4.713860000000        8.062930000000       29.836400000000
 N          2.684070000000        8.123240000000       26.611300000000
 O          2.627460000000        4.821700000000       27.047100000000
 Li        15.844700000000        1.493930000000       15.000000000000
 Li        13.598600000000        3.095900000000       15.000000000000
 Li        13.334300000000        0.349703000000       15.000000000000
 Li         9.798370000000        3.263470000000       21.884700000000
 Li        12.178300000000        1.673320000000       22.237700000000
 Li        12.424500000000        4.586300000000       21.765400000000
 Li        12.553700000000        1.547810000000       17.686400000000
 Li        15.197400000000        0.218857000000       17.686400000000
 Li        15.026500000000        3.172870000000       17.686400000000
 Li        12.995400000000        3.493920000000       19.189000000000
 Li        10.464100000000        4.695500000000       19.135700000000
 Li        10.681700000000        1.691720000000       19.493700000000
 Li        11.407400000000        0.000000000000       16.472700000000
 Li         5.755830000000        9.884720000000       20.657200000000
 Cr        14.179200000000        1.589140000000       20.660000000000
 Cr        11.407400000000        3.293020000000       16.219400000000
 N         15.889300000000        1.417900000000       21.115400000000
 N         14.199900000000        1.696300000000       18.892800000000
 N          9.748720000000        3.392740000000       15.688200000000
 N         12.150300000000        1.806730000000       15.688200000000
 N         12.323000000000        4.679590000000       15.688200000000
 N         13.334400000000        0.347486000000       21.267500000000
 N         13.412700000000        2.991920000000       21.255600000000
 N         11.407400000000        3.293020000000       17.962100000000
 O          5.629510000000        9.694990000000       18.515500000000
 Li        15.692800000000        1.486020000000       23.477700000000
 Li        13.481600000000        3.274370000000       23.278100000000
 Li        13.662500000000        0.341417000000       23.920400000000
 Li         9.580050000000        3.590740000000       30.172200000000
 Li        11.833300000000        1.994160000000       30.373400000000
 Li        11.849600000000        4.574670000000       30.412000000000
 Li        12.502500000000        1.521030000000       26.098600000000
 Li        15.009900000000        0.502625000000       26.003000000000
 Li        14.806500000000        3.279320000000       26.218400000000
 Li        12.461700000000        3.103260000000       27.803300000000
 Li        10.426000000000        4.847220000000       27.678700000000
 Li        10.386600000000        2.069520000000       27.639600000000
 Li         9.463480000000        0.270152000000       26.476400000000
 Li         5.640150000000       10.130500000000       28.875700000000
 Cr        14.016900000000        1.987500000000       29.161400000000
 Cr        11.357100000000        3.287980000000       24.600800000000
 N         15.570000000000        1.900640000000       29.731000000000
 N         14.163200000000        1.874450000000       27.385700000000
 N          9.647350000000        3.405560000000       24.171400000000
 N         12.192000000000        1.768360000000       24.130400000000
 N         12.411400000000        4.557170000000       24.027900000000
 N         12.997600000000        0.662527000000       29.663200000000
 N         13.461400000000        3.526900000000       29.955500000000
 N         11.264300000000        3.538640000000       26.307200000000
 O         11.547400000000        0.118020000000       26.954800000000
 Li        12.992900000000        6.433470000000       15.000000000000
 Li        10.746700000000        8.035430000000       15.000000000000
 Li        10.482500000000        5.289240000000       15.000000000000
 Li         6.896210000000        8.311120000000       22.103200000000
 Li         9.114400000000        6.609370000000       21.885300000000
 Li         9.270930000000        9.407470000000       21.638200000000
 Li         9.701860000000        6.487340000000       17.686400000000
 Li        12.345600000000        5.158390000000       17.686400000000
 Li        12.174600000000        8.112400000000       17.686400000000
 Li        10.351300000000        8.064600000000       18.990500000000
 Li         7.590700000000        9.468530000000       19.102800000000
 Li         7.960920000000        6.810320000000       19.499100000000
 Li         8.555520000000        4.939530000000       16.472700000000
 Li         8.805370000000        5.080990000000       20.445700000000
 Cr        11.326200000000        6.412790000000       20.427300000000
 Cr         8.555520000000        8.232550000000       16.219400000000
 N         13.071200000000        6.403370000000       20.973500000000
 N         11.274300000000        6.557810000000       18.709900000000
 N          6.896880000000        8.332270000000       15.688200000000
 N          9.298480000000        6.746270000000       15.688200000000
 N          9.471200000000        9.619120000000       15.688200000000
 N         10.621100000000        4.917420000000       21.169000000000
 N         10.688300000000        7.873350000000       21.136700000000
 N          8.555520000000        8.232550000000       17.962100000000
 O          8.618090000000        5.009540000000       18.276600000000
 Li        13.005600000000        6.520340000000       23.106800000000
 Li        10.436900000000        8.150960000000       23.139800000000
 Li        10.804400000000        5.370370000000       23.225000000000
 Li         6.629810000000        8.814060000000       30.758300000000
 Li         9.076880000000        6.456960000000       30.811400000000
 Li         9.110440000000        9.822820000000       30.076000000000
 Li         9.870970000000        6.104410000000       25.919200000000
 Li        12.745000000000        4.880070000000       26.031100000000
 Li        12.135200000000        8.025390000000       26.081700000000
 Li        10.404500000000        8.483590000000       27.324900000000
 Li         7.329610000000        9.784870000000       27.680400000000
 Li         8.643430000000        7.281880000000       28.250700000000
 Li         8.442280000000        5.042080000000       24.948400000000
 Li         8.302780000000        5.070230000000       28.727000000000
 Cr        11.216200000000        6.758380000000       29.124600000000
 Cr         8.581790000000        8.188580000000       24.784800000000
 N         12.710600000000        6.658620000000       29.974000000000
 N         11.414900000000        6.593800000000       27.319300000000
 N          6.846460000000        8.326960000000       24.149600000000
 N          9.370370000000        6.728880000000       24.122400000000
 N          9.441890000000        9.677260000000       24.258300000000
 N         10.159400000000        5.348170000000       29.630400000000
 N         10.498700000000        8.110930000000       29.588500000000
 N          8.515390000000        8.150560000000       26.422700000000
 O          8.568320000000        4.850790000000       26.820100000000
