6

C         5.233964        4.408445        5.871154
 F         5.294116        3.507649        6.898502
 H         4.632727        3.903384        5.128161
 H         4.590410        5.255783        6.292705
 H         6.198241        4.534957        5.461851
 Cl        4.751148        6.037247        3.795768
