300
Frame 1
 Li         4.437360000000        1.493930000000       15.000000000000
 Li         2.191220000000        3.095900000000       15.000000000000
 Li         1.926950000000        0.349703000000       15.000000000000
 Li        -1.441510000000        3.478810000000       21.903000000000
 Li         0.591391000000        1.873620000000       22.254300000000
 Li         0.923494000000        4.653810000000       21.919600000000
 Li         1.146340000000        1.547810000000       17.686400000000
 Li         3.790070000000        0.218857000000       17.686400000000
 Li         3.619110000000        3.172870000000       17.686400000000
 Li         1.475590000000        3.792080000000       19.312100000000
 Li        -1.056780000000        4.830190000000       19.199800000000
 Li        -0.796410000000        1.945590000000       19.269000000000
 Li         0.000000000000        0.000000000000       16.472700000000
 Li        -0.040531900000        0.397942000000       20.348400000000
 Cr         2.837800000000        1.729970000000       20.667200000000
 Cr        -0.000000000000        3.293020000000       16.219400000000
 N          4.467850000000        1.385900000000       21.176400000000
 N          2.818460000000        1.616100000000       19.039400000000
 N         -1.658640000000        3.392740000000       15.688200000000
 N          0.742962000000        1.806730000000       15.688200000000
 N          0.915682000000        4.679590000000       15.688200000000
 N          1.861440000000        0.410714000000       21.252500000000
 N          2.403920000000        3.395570000000       21.325700000000
 N         -0.000000000000        3.293020000000       17.962100000000
 O         -5.730600000000        9.893010000000       18.270400000000
 Li         4.881500000000        1.419290000000       23.388800000000
 Li         2.309660000000        3.038640000000       23.587500000000
 Li         1.705270000000        0.228176000000       23.312600000000
 Li        -1.298650000000        3.696810000000       30.387200000000
 Li         0.909734000000        1.415770000000       30.292500000000
 Li         1.146050000000        4.887110000000       30.538500000000
 Li         1.119790000000        1.757450000000       26.043400000000
 Li         3.708360000000        0.120702000000       26.046300000000
 Li         3.585610000000        3.307780000000       26.118700000000
 Li         1.649210000000        3.464270000000       27.555800000000
 Li        -0.809945000000        4.953330000000       27.586900000000
 Li        -0.409190000000        1.967500000000       27.753900000000
 Li         0.132401000000       -0.121606000000       24.735300000000
 Li         0.019281300000       -0.073679600000       28.877600000000
 Cr         3.116460000000        1.867880000000       28.969800000000
 Cr         0.015542500000        3.397010000000       24.650900000000
 N          4.839360000000        1.944370000000       29.504900000000
 N          2.881400000000        1.707610000000       27.203700000000
 N         -1.767250000000        3.388910000000       24.158200000000
 N          0.805972000000        1.942800000000       24.218200000000
 N          0.979284000000        4.675900000000       24.144700000000
 N          2.254970000000        0.496717000000       29.624500000000
 N          2.309690000000        3.250100000000       29.842000000000
 N          0.081022800000        3.562340000000       26.392900000000
 O          0.174748000000        0.123757000000       26.986300000000
 Li         1.585520000000        6.433470000000       15.000000000000
 Li        -0.660622000000        8.035430000000       15.000000000000
 Li        -0.924893000000        5.289240000000       15.000000000000
 Li        -4.772370000000        8.408030000000       21.722800000000
 Li        -2.370590000000        7.130970000000       21.985700000000
 Li        -2.101830000000        9.499510000000       21.811600000000
 Li        -1.705500000000        6.487340000000       17.686400000000
 Li         0.938231000000        5.158390000000       17.686400000000
 Li         0.767269000000        8.112400000000       17.686400000000
 Li        -1.344710000000        8.473780000000       18.899200000000
 Li        -3.761360000000        9.710000000000       18.935800000000
 Li        -3.535440000000        6.778000000000       19.250300000000
 Li        -2.851840000000        4.939530000000       16.472700000000
 Li        14.330400000000        4.975160000000       20.439500000000
 Cr        -0.010015700000        6.609560000000       20.605300000000
 Cr        -2.851840000000        8.232550000000       16.219400000000
 N          1.575470000000        6.474880000000       21.232500000000
 N         -0.121644000000        6.649690000000       18.876900000000
 N         -4.510480000000        8.332270000000       15.688200000000
 N         -2.108880000000        6.746270000000       15.688200000000
 N         -1.936160000000        9.619120000000       15.688200000000
 N         -0.866512000000        5.269270000000       21.096000000000
 N         -0.791972000000        8.028640000000       21.243700000000
 N         -2.851840000000        8.232550000000       17.962100000000
 O         -2.898590000000        4.962930000000       18.485500000000
 Li         1.415230000000        6.373380000000       23.302600000000
 Li        -0.684945000000        8.128600000000       23.192700000000
 Li        -1.314670000000        5.268580000000       23.484100000000
 Li        -4.577980000000        8.905410000000       30.347500000000
 Li        -1.981430000000        6.934280000000       30.649200000000
 Li         4.064220000000        0.006222160000       30.397000000000
 Li        -1.990010000000        6.410850000000       26.303300000000
 Li         1.087790000000        5.420310000000       26.052400000000
 Li        -0.134286000000        7.463740000000       25.277100000000
 Li        -1.459260000000        8.728010000000       27.925400000000
 Li        -3.692510000000        9.987030000000       27.780500000000
 Li        -3.920870000000        6.556650000000       27.647000000000
 Li        14.146300000000        5.040170000000       25.045900000000
 Li        14.202300000000        4.937900000000       28.967800000000
 Cr         0.034671800000        6.798230000000       29.318600000000
 Cr        -2.706950000000        8.199520000000       24.774400000000
 N          1.659310000000        6.595810000000       30.005000000000
 N          0.067559000000        6.719360000000       27.522700000000
 N         -4.428690000000        8.256040000000       24.103000000000
 N         -1.943030000000        6.704540000000       24.247500000000
 N         -1.806730000000        9.430400000000       24.002800000000
 N         -0.915427000000        5.539750000000       30.158200000000
 N         -0.655779000000        8.286450000000       29.754900000000
 N         -2.884680000000        8.211370000000       26.516500000000
 O         -2.841480000000        4.950680000000       27.012600000000
 Li        10.141000000000        1.493930000000       15.000000000000
 Li         7.894900000000        3.095900000000       15.000000000000
 Li         7.630630000000        0.349703000000       15.000000000000
 Li         4.097580000000        3.468490000000       22.261300000000
 Li         6.278140000000        1.748760000000       21.932400000000
 Li         6.573180000000        4.846650000000       21.943500000000
 Li         6.850020000000        1.547810000000       17.686400000000
 Li         9.493750000000        0.218857000000       17.686400000000
 Li         9.322790000000        3.172870000000       17.686400000000
 Li         7.228580000000        3.707470000000       19.356600000000
 Li         4.743050000000        4.571100000000       19.215700000000
 Li         5.023760000000        1.927340000000       19.447200000000
 Li         5.703680000000        0.000000000000       16.472700000000
 Li        -0.234391000000        9.813460000000       20.337000000000
 Cr         8.509510000000        1.679480000000       20.565000000000
 Cr         5.703680000000        3.293020000000       16.219400000000
 N         10.223200000000        1.708120000000       21.204600000000
 N          8.638040000000        1.751840000000       18.894900000000
 N          4.045040000000        3.392740000000       15.688200000000
 N          6.446640000000        1.806730000000       15.688200000000
 N          6.619360000000        4.679590000000       15.688200000000
 N          7.491890000000        0.344494000000       21.277300000000
 N          7.750320000000        3.259270000000       20.999600000000
 N          5.703680000000        3.293020000000       17.962100000000
 O         -0.150713000000       10.068300000000       18.400200000000
 Li        10.653200000000        1.270450000000       23.362000000000
 Li         7.804140000000        3.338850000000       23.076500000000
 Li         7.415320000000        0.352641000000       23.482800000000
 Li         4.076900000000        3.563570000000       30.292000000000
 Li         6.607350000000        1.736920000000       30.390100000000
 Li         6.848510000000        4.455750000000       30.357500000000
 Li         8.707760000000        1.766390000000       24.639800000000
 Li         7.554890000000        0.563006000000       27.078200000000
 Li         9.590590000000        3.236260000000       26.319800000000
 Li         7.540400000000        3.364100000000       27.584500000000
 Li         4.792550000000        4.604900000000       27.979700000000
 Li         5.157810000000        1.652510000000       27.324400000000
 Li         5.845870000000        0.160651000000       25.181400000000
 Li         6.000440000000        0.031031800000       29.187200000000
 Cr         8.884230000000        1.702200000000       29.397500000000
 Cr         5.712820000000        3.422940000000       24.790700000000
 N         10.411400000000        1.553310000000       30.279300000000
 N          8.894610000000        1.758840000000       27.521400000000
 N          4.058150000000        3.399690000000       24.234900000000
 N          6.466870000000        1.842810000000       24.041200000000
 N          6.467230000000        4.965420000000       24.275800000000
 N          7.791520000000        0.415411000000       29.978700000000
 N          7.906690000000        3.102210000000       29.814400000000
 N          5.585920000000        3.411020000000       26.492200000000
 O         -0.164177000000        9.804330000000       27.093100000000
 Li         7.289200000000        6.433470000000       15.000000000000
 Li         5.043060000000        8.035430000000       15.000000000000
 Li         4.778790000000        5.289240000000       15.000000000000
 Li         1.108570000000        8.466850000000       22.046600000000
 Li         3.455790000000        7.397400000000       21.715200000000
 Li         9.546180000000       -0.103258000000       22.238400000000
 Li         3.998180000000        6.487340000000       17.686400000000
 Li         6.641910000000        5.158390000000       17.686400000000
 Li         6.470950000000        8.112400000000       17.686400000000
 Li         4.631400000000        8.315720000000       18.840800000000
 Li         2.094730000000        9.500250000000       19.391000000000
 Li         2.004620000000        6.715400000000       19.002900000000
 Li         2.851840000000        4.939530000000       16.472700000000
 Li         3.033280000000        5.076740000000       20.892500000000
 Cr         5.598170000000        6.705520000000       20.693600000000
 Cr         2.851840000000        8.232550000000       16.219400000000
 N          7.245760000000        6.780970000000       21.204800000000
 N          5.587670000000        6.508690000000       18.930600000000
 N          1.193200000000        8.332270000000       15.688200000000
 N          3.594800000000        6.746270000000       15.688200000000
 N          3.767520000000        9.619120000000       15.688200000000
 N          4.764700000000        5.381800000000       21.402400000000
 N          5.006030000000        8.375320000000       21.099400000000
 N          2.851840000000        8.232550000000       17.962100000000
 O          2.639390000000        4.971820000000       18.501200000000
 Li         7.409430000000        6.343510000000       23.391300000000
 Li         5.214790000000        8.378540000000       23.794100000000
 Li         4.995230000000        5.993980000000       23.708100000000
 Li         1.916690000000        8.529300000000       30.464200000000
 Li         3.310180000000        6.451580000000       30.653700000000
 Li         4.046950000000        9.446480000000       30.500800000000
 Li         4.124530000000        6.521530000000       26.319900000000
 Li         6.693140000000        5.081940000000       26.794500000000
 Li         6.344460000000        8.319100000000       26.188700000000
 Li         4.543800000000        8.476780000000       27.937700000000
 Li         0.877081000000        8.364400000000       27.135700000000
 Li         2.211040000000        6.676150000000       27.474700000000
 Li         3.045570000000        5.090650000000       24.749500000000
 Li         2.847940000000        4.996630000000       29.149500000000
 Cr         5.800900000000        6.601520000000       29.463700000000
 Cr         2.921060000000        8.497520000000       24.861800000000
 N          7.574610000000        6.559920000000       29.805300000000
 N          5.793250000000        6.707070000000       27.638800000000
 N          1.111000000000        8.440810000000       24.188400000000
 N          3.674550000000        7.056380000000       24.431200000000
 N          3.729530000000        9.843840000000       24.055600000000
 N          4.683170000000        5.300470000000       30.189700000000
 N          5.018110000000        7.998410000000       30.052300000000
 N          2.986060000000        8.515280000000       26.677300000000
 O          2.948970000000        5.049390000000       26.959500000000
 Li        15.844700000000        1.493930000000       15.000000000000
 Li        13.598600000000        3.095900000000       15.000000000000
 Li        13.334300000000        0.349703000000       15.000000000000
 Li        10.040400000000        3.490090000000       21.852700000000
 Li        12.180600000000        1.842350000000       21.718600000000
 Li        12.479700000000        4.759170000000       21.869600000000
 Li        12.553700000000        1.547810000000       17.686400000000
 Li        15.197400000000        0.218857000000       17.686400000000
 Li        15.026500000000        3.172870000000       17.686400000000
 Li        12.970400000000        3.305120000000       19.171900000000
 Li        10.609600000000        4.786580000000       19.103400000000
 Li        10.561700000000        1.926740000000       19.125500000000
 Li        11.407400000000        0.000000000000       16.472700000000
 Li        11.540200000000        0.047536000000       20.188200000000
 Cr        14.316100000000        1.659810000000       20.698100000000
 Cr        11.407400000000        3.293020000000       16.219400000000
 N         15.935400000000        1.572410000000       21.366000000000
 N         14.315800000000        1.638010000000       18.936100000000
 N          9.748720000000        3.392740000000       15.688200000000
 N         12.150300000000        1.806730000000       15.688200000000
 N         12.323000000000        4.679590000000       15.688200000000
 N         13.468900000000        0.288299000000       21.237400000000
 N         13.502700000000        3.197290000000       21.264300000000
 N         11.407400000000        3.293020000000       17.962100000000
 O          5.724010000000        9.836500000000       18.392700000000
 Li        15.544300000000        1.592010000000       23.927400000000
 Li        13.475400000000        3.352430000000       23.288400000000
 Li        13.247800000000        0.274448000000       23.599900000000
 Li         9.862180000000        3.560350000000       30.471300000000
 Li        12.184600000000        1.982910000000       30.616100000000
 Li        12.557200000000        4.986920000000       30.793900000000
 Li        12.377600000000        1.054350000000       26.235900000000
 Li        15.022000000000        0.506689000000       26.202000000000
 Li        15.022400000000        3.313640000000       26.143600000000
 Li        13.141200000000        3.275600000000       27.514400000000
 Li        11.063800000000        4.750280000000       27.905300000000
 Li        10.739300000000        1.968360000000       27.822800000000
 Li         9.977880000000        0.169973000000       26.032000000000
 Li         6.017380000000       10.042700000000       29.175400000000
 Cr        14.318400000000        1.891400000000       29.308500000000
 Cr        11.493300000000        3.336760000000       24.739400000000
 N         15.975600000000        1.796980000000       29.811500000000
 N         14.474600000000        1.752210000000       27.525700000000
 N          9.807700000000        3.280490000000       24.219000000000
 N         12.256300000000        1.921560000000       23.862400000000
 N         12.354200000000        4.746100000000       24.138400000000
 N         13.447100000000        0.417202000000       30.009500000000
 N         13.808600000000        3.383180000000       29.837400000000
 N         11.470600000000        3.469840000000       26.563600000000
 O          5.783100000000        9.737470000000       27.371200000000
 Li        12.992900000000        6.433470000000       15.000000000000
 Li        10.746700000000        8.035430000000       15.000000000000
 Li        10.482500000000        5.289240000000       15.000000000000
 Li         6.783560000000        8.681930000000       21.834500000000
 Li         9.158900000000        6.884620000000       21.739200000000
 Li         9.731140000000        9.430830000000       22.056500000000
 Li         9.701860000000        6.487340000000       17.686400000000
 Li        12.345600000000        5.158390000000       17.686400000000
 Li        12.174600000000        8.112400000000       17.686400000000
 Li        10.342900000000        8.273660000000       18.978700000000
 Li         7.661620000000        9.287870000000       19.026600000000
 Li         7.684960000000        6.635050000000       18.937000000000
 Li         8.555520000000        4.939530000000       16.472700000000
 Li         8.743920000000        5.114850000000       20.388300000000
 Cr        11.380500000000        6.553350000000       20.573500000000
 Cr         8.555520000000        8.232550000000       16.219400000000
 N         12.968800000000        6.452880000000       21.244400000000
 N         11.397200000000        6.520000000000       18.849200000000
 N          6.896880000000        8.332270000000       15.688200000000
 N          9.298480000000        6.746270000000       15.688200000000
 N          9.471200000000        9.619120000000       15.688200000000
 N         10.371000000000        5.316280000000       21.373000000000
 N         10.735100000000        7.985720000000       21.034100000000
 N          8.555520000000        8.232550000000       17.962100000000
 O          8.558210000000        5.115500000000       18.507600000000
 Li        12.572200000000        6.532860000000       23.683500000000
 Li        10.691900000000        7.911740000000       23.465300000000
 Li        10.423000000000        5.504670000000       23.108500000000
 Li         7.063250000000        8.349880000000       30.283600000000
 Li         9.524020000000        6.907440000000       30.562000000000
 Li         9.553070000000        9.761130000000       30.231600000000
 Li         9.608020000000        6.450710000000       26.349500000000
 Li        12.212300000000        5.207310000000       26.055900000000
 Li        11.982500000000        8.121610000000       26.115000000000
 Li        10.473200000000        8.397480000000       27.541300000000
 Li         7.860600000000        9.424990000000       28.135700000000
 Li         7.580300000000        7.122200000000       27.934500000000
 Li         8.411660000000        4.939560000000       25.167400000000
 Li         8.845980000000        5.228700000000       28.814800000000
 Cr        11.439500000000        6.866010000000       29.320800000000
 Cr         8.619110000000        8.282340000000       24.889700000000
 N         13.082100000000        6.707000000000       29.780300000000
 N         11.280000000000        6.502670000000       27.602900000000
 N          7.023600000000        8.466090000000       24.179300000000
 N          9.342210000000        6.798670000000       24.190000000000
 N          9.698750000000        9.524910000000       24.308900000000
 N         10.617000000000        5.503200000000       29.999100000000
 N         10.590300000000        8.447000000000       29.607300000000
 N          8.559780000000        8.312940000000       26.648900000000
 O          8.634840000000        4.900880000000       27.036900000000
