300
Frame 2
 Li         4.437360000000        1.493930000000       15.000000000000
 Li         2.191220000000        3.095900000000       15.000000000000
 Li         1.926950000000        0.349703000000       15.000000000000
 Li        -1.410860000000        3.181850000000       21.765100000000
 Li         0.495613000000        1.743800000000       21.645500000000
 Li         0.667260000000        4.193160000000       22.176500000000
 Li         1.146340000000        1.547810000000       17.686400000000
 Li         3.790070000000        0.218857000000       17.686400000000
 Li         3.619110000000        3.172870000000       17.686400000000
 Li         1.567840000000        3.241480000000       19.382400000000
 Li        -0.957734000000        4.655460000000       19.087900000000
 Li        -0.940001000000        1.365070000000       19.134000000000
 Li         0.000000000000        0.000000000000       16.472700000000
 Li        11.335200000000        9.845860000000       20.773700000000
 Cr         2.769740000000        1.690560000000       20.654000000000
 Cr        -0.000000000000        3.293020000000       16.219400000000
 N          4.390700000000        1.472460000000       21.286600000000
 N          2.860320000000        1.775550000000       18.846900000000
 N         -1.658640000000        3.392740000000       15.688200000000
 N          0.742962000000        1.806730000000       15.688200000000
 N          0.915682000000        4.679590000000       15.688200000000
 N          1.798830000000        0.459908000000       21.254500000000
 N          2.263250000000        3.223740000000       21.257500000000
 N         -0.000000000000        3.293020000000       17.962100000000
 O         -5.740780000000        9.895310000000       18.427800000000
 Li         4.310840000000        1.304970000000       23.511000000000
 Li         2.333510000000        2.996000000000       23.331100000000
 Li         1.900380000000        0.303296000000       23.420000000000
 Li        -1.985470000000        3.242220000000       30.763900000000
 Li         0.902801000000        1.687010000000       30.585700000000
 Li         0.808447000000        4.578150000000       30.268300000000
 Li         1.135310000000        1.528010000000       26.158100000000
 Li         3.624540000000        0.420232000000       25.941300000000
 Li         3.548950000000        3.425760000000       26.076400000000
 Li         1.812910000000        3.314180000000       27.465300000000
 Li        -1.158760000000        4.484500000000       27.505200000000
 Li        16.154300000000        1.343410000000       27.921800000000
 Li        11.425600000000        9.608820000000       25.165000000000
 Li        11.347600000000        9.533620000000       29.126300000000
 Cr         2.925620000000        1.560470000000       29.039700000000
 Cr        -0.032871400000        3.297410000000       24.617400000000
 N          4.612810000000        1.270220000000       29.577900000000
 N          2.735550000000        1.535180000000       27.255400000000
 N         -1.557580000000        3.377970000000       23.951300000000
 N          0.707727000000        1.902640000000       23.950400000000
 N          0.802295000000        4.895320000000       24.158300000000
 N          2.135120000000        0.249109000000       30.022900000000
 N          2.235030000000        2.977740000000       29.708800000000
 N          0.024799500000        3.092950000000       26.310000000000
 O         11.237300000000        9.798360000000       27.074100000000
 Li         1.585520000000        6.433470000000       15.000000000000
 Li        -0.660622000000        8.035430000000       15.000000000000
 Li        -0.924893000000        5.289240000000       15.000000000000
 Li        -4.245120000000        8.165070000000       21.868700000000
 Li        -2.031910000000        6.472680000000       21.778600000000
 Li        -2.247790000000        9.355560000000       21.628800000000
 Li        -1.705500000000        6.487340000000       17.686400000000
 Li         0.938231000000        5.158390000000       17.686400000000
 Li         0.767269000000        8.112400000000       17.686400000000
 Li        -1.020500000000        8.658500000000       19.067100000000
 Li        -4.040340000000        9.889200000000       19.183700000000
 Li        -3.480750000000        6.558880000000       19.362100000000
 Li        -2.851840000000        4.939530000000       16.472700000000
 Li        -2.877500000000        4.854640000000       20.544200000000
 Cr        -0.085610500000        6.571380000000       20.519400000000
 Cr        -2.851840000000        8.232550000000       16.219400000000
 N          1.537320000000        6.491500000000       21.257000000000
 N          0.008756470000        6.623990000000       18.875400000000
 N         -4.510480000000        8.332270000000       15.688200000000
 N         -2.108880000000        6.746270000000       15.688200000000
 N         -1.936160000000        9.619120000000       15.688200000000
 N         -0.865228000000        5.059670000000       21.033700000000
 N         -1.050480000000        7.965760000000       20.969900000000
 N         -2.851840000000        8.232550000000       17.962100000000
 O         14.292600000000        4.920210000000       18.540200000000
 Li         1.752110000000        6.172500000000       23.254800000000
 Li        -0.681185000000        8.285590000000       23.013200000000
 Li        -0.892449000000        5.340120000000       23.506100000000
 Li        -4.333430000000        8.228810000000       30.807500000000
 Li        -1.921940000000        6.654260000000       30.665400000000
 Li        -1.741190000000        9.596630000000       30.448400000000
 Li        -1.869710000000        6.187840000000       26.555400000000
 Li         1.102330000000        4.987720000000       26.242100000000
 Li         0.228250000000        6.867600000000       24.765000000000
 Li        -1.500340000000        8.512550000000       27.468100000000
 Li        -3.716700000000        9.592010000000       27.578700000000
 Li        -3.719490000000        6.825150000000       27.998600000000
 Li        14.277400000000        4.863940000000       24.860300000000
 Li        13.988000000000        4.873940000000       29.388700000000
 Cr        -0.217213000000        6.342040000000       29.114700000000
 Cr        -2.833590000000        8.201340000000       24.594700000000
 N          1.579920000000        6.190070000000       29.776300000000
 N         -0.232644000000        6.496620000000       27.283300000000
 N         -4.404540000000        8.423750000000       23.938300000000
 N         -1.971670000000        6.786900000000       23.969100000000
 N         -1.906210000000        9.615180000000       24.243500000000
 N         -1.008810000000        4.893140000000       29.746700000000
 N         -0.808072000000        7.882590000000       29.730900000000
 N         -3.047190000000        8.361740000000       26.244900000000
 O         14.358200000000        4.744860000000       26.883100000000
 Li        10.141000000000        1.493930000000       15.000000000000
 Li         7.894900000000        3.095900000000       15.000000000000
 Li         7.630630000000        0.349703000000       15.000000000000
 Li         4.186610000000        3.336520000000       22.034100000000
 Li         6.258280000000        1.655400000000       22.078600000000
 Li         6.584510000000        4.617560000000       21.915100000000
 Li         6.850020000000        1.547810000000       17.686400000000
 Li         9.493750000000        0.218857000000       17.686400000000
 Li         9.322790000000        3.172870000000       17.686400000000
 Li         7.512810000000        3.498560000000       18.993900000000
 Li         4.630850000000        4.999180000000       19.107300000000
 Li         5.002610000000        1.905850000000       19.285500000000
 Li         5.703680000000        0.000000000000       16.472700000000
 Li         5.670640000000        0.123397000000       20.455500000000
 Cr         8.546230000000        1.564260000000       20.728700000000
 Cr         5.703680000000        3.293020000000       16.219400000000
 N         10.179600000000        1.369950000000       21.213000000000
 N          8.619690000000        1.716010000000       18.892100000000
 N          4.045040000000        3.392740000000       15.688200000000
 N          6.446640000000        1.806730000000       15.688200000000
 N          6.619360000000        4.679590000000       15.688200000000
 N          7.566640000000        0.091590300000       21.168800000000
 N          7.975420000000        3.104430000000       21.515800000000
 N          5.703680000000        3.293020000000       17.962100000000
 O          5.758090000000        0.199719000000       18.604900000000
 Li         9.994590000000        1.335890000000       23.652600000000
 Li         7.979430000000        3.073990000000       23.436900000000
 Li         7.662810000000        0.214182000000       23.858600000000
 Li         4.039440000000        3.054970000000       30.431400000000
 Li         6.179270000000        1.493830000000       30.525100000000
 Li         6.670090000000        4.671750000000       30.403300000000
 Li         7.018340000000        1.442900000000       26.432000000000
 Li         2.159520000000        9.638350000000       27.672500000000
 Li         9.343180000000        3.159560000000       26.323400000000
 Li         7.356150000000        3.334750000000       27.595700000000
 Li         4.952470000000        4.757980000000       27.902500000000
 Li         4.992760000000        1.721960000000       27.503400000000
 Li        -0.015274900000        9.920760000000       24.873700000000
 Li        -0.081822800000        9.628970000000       28.862400000000
 Cr         8.397570000000        1.582280000000       29.219900000000
 Cr         5.601830000000        3.265770000000       24.655900000000
 N         10.102300000000        1.520150000000       29.951700000000
 N          8.498620000000        1.747930000000       27.426700000000
 N          4.018420000000        3.497630000000       24.007300000000
 N          6.164370000000        1.655070000000       24.254700000000
 N          6.557590000000        4.574930000000       23.931100000000
 N          7.655420000000        0.077262600000       29.794500000000
 N          7.579420000000        2.988610000000       29.833000000000
 N          5.592260000000        3.370980000000       26.502200000000
 O          5.675830000000       -0.097783000000       27.019000000000
 Li         7.289200000000        6.433470000000       15.000000000000
 Li         5.043060000000        8.035430000000       15.000000000000
 Li         4.778790000000        5.289240000000       15.000000000000
 Li         1.401610000000        8.231840000000       21.720400000000
 Li         3.581960000000        6.970660000000       21.813100000000
 Li         3.684170000000        9.579730000000       22.124800000000
 Li         3.998180000000        6.487340000000       17.686400000000
 Li         6.641910000000        5.158390000000       17.686400000000
 Li         6.470950000000        8.112400000000       17.686400000000
 Li         4.836930000000        8.454630000000       19.060800000000
 Li         1.738460000000        9.581210000000       19.302000000000
 Li         1.943760000000        6.672300000000       19.167700000000
 Li         2.851840000000        4.939530000000       16.472700000000
 Li         2.838230000000        5.109940000000       20.971400000000
 Cr         5.689530000000        6.727000000000       20.652100000000
 Cr         2.851840000000        8.232550000000       16.219400000000
 N          7.404350000000        6.483520000000       21.182800000000
 N          5.825960000000        6.575020000000       18.858100000000
 N          1.193200000000        8.332270000000       15.688200000000
 N          3.594800000000        6.746270000000       15.688200000000
 N          3.767520000000        9.619120000000       15.688200000000
 N          4.711440000000        5.393990000000       21.320800000000
 N          4.867960000000        8.035030000000       21.318100000000
 N          2.851840000000        8.232550000000       17.962100000000
 O          2.882970000000        5.009940000000       18.427200000000
 Li         7.551760000000        6.726520000000       23.251000000000
 Li         5.066820000000        8.137500000000       23.998300000000
 Li         4.798040000000        5.679500000000       23.592000000000
 Li         1.536550000000        8.363360000000       30.133700000000
 Li         3.613710000000        6.592560000000       30.295000000000
 Li         3.594990000000        9.623560000000       30.224200000000
 Li         4.088130000000        6.156160000000       26.206800000000
 Li         6.621520000000        5.213030000000       26.286000000000
 Li         6.524650000000        8.392230000000       26.393600000000
 Li         4.417570000000        8.189980000000       27.765900000000
 Li         0.669647000000        8.209850000000       26.588300000000
 Li         1.771210000000        6.515250000000       27.558300000000
 Li         2.737770000000        4.934050000000       24.738700000000
 Li         2.893190000000        4.875200000000       29.189500000000
 Cr         5.847470000000        6.613010000000       29.260200000000
 Cr         2.709200000000        8.059940000000       24.880900000000
 N          7.455900000000        6.414620000000       29.901500000000
 N          5.739080000000        6.368420000000       27.563100000000
 N          1.228320000000        8.328020000000       24.141200000000
 N          3.415970000000        6.597860000000       24.230500000000
 N          3.672010000000        9.514120000000       24.359100000000
 N          4.812230000000        5.194180000000       29.858000000000
 N          4.668240000000        8.050510000000       29.711700000000
 N          2.699070000000        8.167890000000       26.556700000000
 O          2.734710000000        5.020380000000       27.177600000000
 Li        15.844700000000        1.493930000000       15.000000000000
 Li        13.598600000000        3.095900000000       15.000000000000
 Li        13.334300000000        0.349703000000       15.000000000000
 Li         9.939860000000        3.166350000000       21.966700000000
 Li        12.011700000000        1.610730000000       21.713500000000
 Li        12.454500000000        4.570990000000       22.054500000000
 Li        12.553700000000        1.547810000000       17.686400000000
 Li        15.197400000000        0.218857000000       17.686400000000
 Li        15.026500000000        3.172870000000       17.686400000000
 Li        12.991100000000        3.388780000000       19.252400000000
 Li        10.514000000000        4.672770000000       19.209500000000
 Li        10.564200000000        1.885620000000       18.959900000000
 Li        11.407400000000        0.000000000000       16.472700000000
 Li        11.265900000000       -0.097981500000       20.472800000000
 Cr        14.282200000000        1.506270000000       20.616000000000
 Cr        11.407400000000        3.293020000000       16.219400000000
 N         15.851100000000        1.299620000000       21.307200000000
 N         14.339200000000        1.537170000000       18.830600000000
 N          9.748720000000        3.392740000000       15.688200000000
 N         12.150300000000        1.806730000000       15.688200000000
 N         12.323000000000        4.679590000000       15.688200000000
 N         13.365300000000        0.122684000000       21.191500000000
 N         13.666300000000        3.102180000000       21.096500000000
 N         11.407400000000        3.293020000000       17.962100000000
 O         11.385400000000       -0.004841520000       18.579500000000
 Li        15.711200000000        1.391470000000       23.456300000000
 Li        13.558300000000        3.045690000000       23.354200000000
 Li        13.151900000000        0.389525000000       23.976500000000
 Li         9.422070000000        3.271140000000       30.656500000000
 Li        12.109600000000        1.619450000000       30.739700000000
 Li        12.176900000000        4.288150000000       30.416300000000
 Li        12.135300000000        1.210330000000       26.582300000000
 Li        15.204400000000        0.044197000000       26.256000000000
 Li        14.965500000000        2.992670000000       25.826500000000
 Li        13.526900000000        3.360650000000       27.798600000000
 Li        10.419600000000        4.800770000000       27.631100000000
 Li        10.579400000000        2.222360000000       28.162800000000
 Li         9.910750000000        0.179690000000       26.247800000000
 Li        11.301000000000       -0.066803800000       28.948800000000
 Cr        14.131900000000        1.505990000000       29.431700000000
 Cr        11.447300000000        3.181320000000       24.865100000000
 N         15.756000000000        1.160080000000       30.083500000000
 N         14.161700000000        1.496890000000       27.692000000000
 N          9.764520000000        3.087640000000       24.203000000000
 N         12.002900000000        1.836270000000       24.082700000000
 N         12.205600000000        4.683640000000       24.207100000000
 N         13.238300000000        0.181687000000       29.927200000000
 N         13.503200000000        3.007990000000       30.036600000000
 N         11.451700000000        3.311240000000       26.583600000000
 O          5.556310000000        9.695620000000       27.148300000000
 Li        12.992900000000        6.433470000000       15.000000000000
 Li        10.746700000000        8.035430000000       15.000000000000
 Li        10.482500000000        5.289240000000       15.000000000000
 Li         7.028780000000        8.422060000000       22.194800000000
 Li         9.274990000000        6.910420000000       21.618600000000
 Li         9.406420000000        9.326320000000       21.872100000000
 Li         9.701860000000        6.487340000000       17.686400000000
 Li        12.345600000000        5.158390000000       17.686400000000
 Li        12.174600000000        8.112400000000       17.686400000000
 Li        10.240100000000        8.465090000000       18.837700000000
 Li         7.703400000000        9.350410000000       19.477000000000
 Li         7.924130000000        6.697700000000       19.381900000000
 Li         8.555520000000        4.939530000000       16.472700000000
 Li         8.681460000000        4.896130000000       20.662100000000
 Cr        11.544600000000        6.516910000000       20.796900000000
 Cr         8.555520000000        8.232550000000       16.219400000000
 N         13.191800000000        6.320130000000       21.410100000000
 N         11.599600000000        6.597730000000       19.085700000000
 N          6.896880000000        8.332270000000       15.688200000000
 N          9.298480000000        6.746270000000       15.688200000000
 N          9.471200000000        9.619120000000       15.688200000000
 N         10.612500000000        5.182600000000       21.330100000000
 N         10.747300000000        7.966940000000       21.334700000000
 N          8.555520000000        8.232550000000       17.962100000000
 O          8.533520000000        4.957900000000       18.458800000000
 Li        13.153200000000        6.282480000000       23.472600000000
 Li        10.790000000000        8.142490000000       23.346700000000
 Li        10.528700000000        5.403060000000       23.241300000000
 Li         7.174090000000        8.255430000000       30.311300000000
 Li         9.251320000000        6.672920000000       30.551800000000
 Li         9.372480000000        9.506810000000       30.847100000000
 Li         9.500230000000        6.689710000000       26.464300000000
 Li        12.390800000000        5.134520000000       26.236800000000
 Li        12.276700000000        7.649080000000       26.063800000000
 Li        10.167700000000        8.444580000000       27.893500000000
 Li         7.504650000000        9.529830000000       27.960700000000
 Li         7.835180000000        6.650710000000       27.865000000000
 Li         8.722470000000        4.842490000000       24.806500000000
 Li         8.548760000000        4.613570000000       28.969500000000
 Cr        11.367800000000        6.536000000000       29.359500000000
 Cr         8.553760000000        8.231230000000       24.911600000000
 N         13.055300000000        6.367400000000       29.929100000000
 N         11.429300000000        6.629110000000       27.728000000000
 N          6.896580000000        8.266030000000       24.326600000000
 N          9.418960000000        6.775660000000       24.144600000000
 N          9.333110000000        9.513680000000       24.173900000000
 N         10.374000000000        5.194720000000       29.852800000000
 N         10.602100000000        7.966250000000       29.860200000000
 N          8.417950000000        8.177340000000       26.651500000000
 O          8.588920000000        4.873920000000       27.042200000000
