300
Frame 5
 Li         4.437360000000        1.493930000000       15.000000000000
 Li         2.191220000000        3.095900000000       15.000000000000
 Li         1.926950000000        0.349703000000       15.000000000000
 Li        -1.490370000000        3.364270000000       22.025100000000
 Li         0.666608000000        2.001330000000       22.009600000000
 Li         0.798264000000        4.600360000000       22.179500000000
 Li         1.146340000000        1.547810000000       17.686400000000
 Li         3.790070000000        0.218857000000       17.686400000000
 Li         3.619110000000        3.172870000000       17.686400000000
 Li         1.551130000000        3.544520000000       19.287500000000
 Li        -1.051310000000        4.793590000000       19.196800000000
 Li        -0.423611000000        1.838530000000       19.173600000000
 Li         0.000000000000        0.000000000000       16.472700000000
 Li         0.103835000000        0.143889000000       20.608100000000
 Cr         2.922360000000        1.710090000000       20.661200000000
 Cr        -0.000000000000        3.293020000000       16.219400000000
 N          4.636320000000        1.659400000000       21.313600000000
 N          2.931090000000        1.590700000000       18.895900000000
 N         -1.658640000000        3.392740000000       15.688200000000
 N          0.742962000000        1.806730000000       15.688200000000
 N          0.915682000000        4.679590000000       15.688200000000
 N          2.014410000000        0.322623000000       21.371400000000
 N          2.078000000000        3.058070000000       21.067600000000
 N         -0.000000000000        3.293020000000       17.962100000000
 O          0.060313800000        0.137623000000       18.488300000000
 Li         4.445880000000        1.455860000000       23.453100000000
 Li         2.422660000000        3.424470000000       23.680800000000
 Li         1.899080000000        0.593188000000       23.645400000000
 Li        -1.366610000000        3.706110000000       30.388900000000
 Li         1.123870000000        2.051040000000       30.879300000000
 Li         1.306400000000        4.916580000000       30.429500000000
 Li         1.228210000000        1.514500000000       26.081400000000
 Li         3.870720000000        0.525908000000       25.959700000000
 Li         3.632300000000        3.383530000000       26.512700000000
 Li         1.476730000000        3.516860000000       28.017100000000
 Li        -0.869675000000        4.660150000000       27.313100000000
 Li        -0.726409000000        1.777790000000       27.854300000000
 Li        -0.113916000000        0.249629000000       25.120100000000
 Li         0.058476200000        0.211021000000       29.207800000000
 Cr         2.855300000000        1.783800000000       29.318100000000
 Cr         0.049772900000        3.350450000000       24.801700000000
 N          4.535770000000        1.639970000000       29.792300000000
 N          2.787040000000        1.685900000000       27.504700000000
 N         -1.687200000000        3.265130000000       24.267000000000
 N          0.794598000000        1.914730000000       24.252500000000
 N          1.060570000000        4.795030000000       24.334200000000
 N          2.036070000000        0.399583000000       30.180600000000
 N          2.231520000000        3.351790000000       29.932900000000
 N         -0.117699000000        3.164470000000       26.525000000000
 O         -0.099719000000        0.277737000000       27.141700000000
 Li         1.585520000000        6.433470000000       15.000000000000
 Li        -0.660622000000        8.035430000000       15.000000000000
 Li        -0.924893000000        5.289240000000       15.000000000000
 Li        -4.408610000000        8.397100000000       22.136600000000
 Li        -2.114260000000        6.853990000000       21.781200000000
 Li        -1.974880000000        9.595090000000       21.793100000000
 Li        -1.705500000000        6.487340000000       17.686400000000
 Li         0.938231000000        5.158390000000       17.686400000000
 Li         0.767269000000        8.112400000000       17.686400000000
 Li        -0.834673000000        8.320830000000       19.332300000000
 Li        -3.727500000000        9.850210000000       19.323900000000
 Li        -3.783850000000        6.594310000000       19.434800000000
 Li        -2.851840000000        4.939530000000       16.472700000000
 Li        -2.758110000000        4.879550000000       20.468700000000
 Cr         0.062798800000        6.483010000000       20.711500000000
 Cr        -2.851840000000        8.232550000000       16.219400000000
 N          1.712340000000        6.305120000000       21.438500000000
 N         -0.005000860000        6.554140000000       18.852200000000
 N         -4.510480000000        8.332270000000       15.688200000000
 N         -2.108880000000        6.746270000000       15.688200000000
 N         -1.936160000000        9.619120000000       15.688200000000
 N         -1.041500000000        5.284710000000       21.167100000000
 N         -0.765061000000        7.980690000000       21.180400000000
 N         -2.851840000000        8.232550000000       17.962100000000
 O         -2.817270000000        4.923540000000       18.540200000000
 Li         1.708590000000        6.553090000000       23.660400000000
 Li        -0.788947000000        7.928830000000       23.346800000000
 Li        -1.122660000000        5.150690000000       23.309100000000
 Li        -4.233630000000        8.500430000000       30.467000000000
 Li        -2.181410000000        6.909280000000       30.496200000000
 Li         3.996480000000       -0.015615900000       30.475500000000
 Li        -1.688570000000        6.616210000000       26.496000000000
 Li         1.278010000000        4.870530000000       26.253600000000
 Li        -0.101654000000        6.528730000000       25.297200000000
 Li        -1.168470000000        8.548250000000       27.935000000000
 Li         1.804280000000        0.053993400000       27.433800000000
 Li        -3.584980000000        6.981790000000       27.615700000000
 Li        14.264100000000        4.818470000000       24.906000000000
 Li        -2.740880000000        5.147060000000       28.726900000000
 Cr        -0.129557000000        6.890590000000       29.256900000000
 Cr        -2.919520000000        8.220760000000       24.812000000000
 N          1.575440000000        6.786940000000       29.835700000000
 N         -0.087887400000        6.808080000000       27.485500000000
 N         -4.518670000000        8.476110000000       24.287000000000
 N         -2.122570000000        6.710670000000       24.206800000000
 N         -1.941310000000        9.499490000000       24.381500000000
 N         -1.111700000000        5.456390000000       29.617900000000
 N         -0.891906000000        8.326010000000       29.911600000000
 N         -3.022790000000        8.295640000000       26.569100000000
 O         -2.728250000000        5.015560000000       26.896100000000
 Li        10.141000000000        1.493930000000       15.000000000000
 Li         7.894900000000        3.095900000000       15.000000000000
 Li         7.630630000000        0.349703000000       15.000000000000
 Li         4.700170000000        3.434610000000       22.036500000000
 Li         6.534230000000        2.039020000000       21.899300000000
 Li         6.681670000000        4.721940000000       22.189600000000
 Li         6.850020000000        1.547810000000       17.686400000000
 Li         9.493750000000        0.218857000000       17.686400000000
 Li         9.322790000000        3.172870000000       17.686400000000
 Li         7.415190000000        3.413930000000       19.339500000000
 Li         4.598850000000        4.372850000000       19.360100000000
 Li         5.012760000000        1.619690000000       19.381900000000
 Li         5.703680000000        0.000000000000       16.472700000000
 Li         5.618550000000        0.067534100000       20.555400000000
 Cr         8.549190000000        1.695820000000       20.718400000000
 Cr         5.703680000000        3.293020000000       16.219400000000
 N         10.094100000000        1.513260000000       21.534300000000
 N          8.578120000000        1.573460000000       18.940500000000
 N          4.045040000000        3.392740000000       15.688200000000
 N          6.446640000000        1.806730000000       15.688200000000
 N          6.619360000000        4.679590000000       15.688200000000
 N          7.435240000000        0.344609000000       21.465100000000
 N          8.050530000000        3.297240000000       21.275000000000
 N          5.703680000000        3.293020000000       17.962100000000
 O         -0.030540200000        9.843680000000       18.551600000000
 Li        10.561200000000        1.520100000000       23.731100000000
 Li         7.951750000000        2.678460000000       23.610500000000
 Li         7.761440000000        0.157937000000       23.410700000000
 Li         4.208810000000        3.624490000000       30.432000000000
 Li         6.384310000000        2.014120000000       30.315700000000
 Li         6.971480000000        4.870340000000       30.503300000000
 Li         6.855950000000        1.256290000000       26.123600000000
 Li         2.002700000000        9.557710000000       27.772700000000
 Li         9.596820000000        3.481130000000       26.657600000000
 Li         7.393680000000        3.397320000000       27.603500000000
 Li         5.109500000000        4.747640000000       27.957100000000
 Li         5.252770000000        1.572870000000       27.923400000000
 Li        -0.084690800000        9.608490000000       24.862800000000
 Li         5.938420000000        0.050009200000       29.100900000000
 Cr         8.677080000000        1.759200000000       29.255300000000
 Cr         5.720450000000        3.170770000000       24.944200000000
 N         10.317000000000        1.810230000000       29.982200000000
 N          8.716100000000        1.639940000000       27.606300000000
 N          4.123440000000        3.465770000000       24.626800000000
 N          6.283120000000        1.782480000000       24.109800000000
 N          6.450440000000        4.657740000000       24.342800000000
 N          7.736030000000        0.273226000000       29.836300000000
 N          7.937960000000        3.257860000000       29.736800000000
 N          5.778160000000        2.975000000000       26.754300000000
 O         -0.105090000000        9.777680000000       27.034700000000
 Li         7.289200000000        6.433470000000       15.000000000000
 Li         5.043060000000        8.035430000000       15.000000000000
 Li         4.778790000000        5.289240000000       15.000000000000
 Li         1.327840000000        8.244820000000       21.840700000000
 Li         3.298240000000        6.803490000000       22.286000000000
 Li         3.955890000000        9.439910000000       22.318200000000
 Li         3.998180000000        6.487340000000       17.686400000000
 Li         6.641910000000        5.158390000000       17.686400000000
 Li         6.470950000000        8.112400000000       17.686400000000
 Li         4.768580000000        8.362710000000       19.237500000000
 Li         1.891580000000        9.579940000000       19.162800000000
 Li         2.446450000000        6.744670000000       19.352300000000
 Li         2.851840000000        4.939530000000       16.472700000000
 Li         2.771570000000        4.949480000000       20.593200000000
 Cr         5.844630000000        6.607760000000       20.783600000000
 Cr         2.851840000000        8.232550000000       16.219400000000
 N          7.560150000000        6.393880000000       21.423500000000
 N          5.797410000000        6.645140000000       18.981700000000
 N          1.193200000000        8.332270000000       15.688200000000
 N          3.594800000000        6.746270000000       15.688200000000
 N          3.767520000000        9.619120000000       15.688200000000
 N          5.060430000000        5.199870000000       21.518100000000
 N          5.176600000000        8.136690000000       21.319500000000
 N          2.851840000000        8.232550000000       17.962100000000
 O          3.095810000000        4.815220000000       18.733300000000
 Li         7.181430000000        6.669400000000       23.620400000000
 Li         5.294930000000        8.295340000000       23.752100000000
 Li         4.966250000000        5.568050000000       23.936700000000
 Li         1.102320000000        8.554340000000       30.673900000000
 Li         3.324160000000        7.351190000000       30.099400000000
 Li         9.629640000000        0.139699000000       30.590100000000
 Li         4.027080000000        6.482690000000       26.727900000000
 Li         6.733690000000        5.465840000000       26.347600000000
 Li         6.389460000000        8.719250000000       26.046600000000
 Li         4.747430000000        8.521600000000       27.887100000000
 Li         0.642353000000        8.119220000000       26.379500000000
 Li         1.841340000000        6.780580000000       27.878700000000
 Li         2.838540000000        5.124220000000       25.194100000000
 Li         3.204420000000        5.140540000000       29.008800000000
 Cr         5.822470000000        6.718260000000       29.367900000000
 Cr         2.956650000000        8.304950000000       24.767200000000
 N          7.487780000000        6.750550000000       29.876800000000
 N          5.722160000000        6.507660000000       27.586200000000
 N          1.249110000000        8.269280000000       24.117100000000
 N          3.845950000000        6.777230000000       24.418200000000
 N          3.742780000000        9.694770000000       24.231400000000
 N          4.894670000000        5.238070000000       29.943600000000
 N          4.979240000000        8.157660000000       29.869900000000
 N          2.954230000000        8.491040000000       26.562000000000
 O          2.761420000000        5.200910000000       27.228800000000
 Li        15.844700000000        1.493930000000       15.000000000000
 Li        13.598600000000        3.095900000000       15.000000000000
 Li        13.334300000000        0.349703000000       15.000000000000
 Li         9.831480000000        3.293760000000       22.063900000000
 Li        12.139700000000        1.927500000000       21.986900000000
 Li        12.416600000000        4.543310000000       21.921700000000
 Li        12.553700000000        1.547810000000       17.686400000000
 Li        15.197400000000        0.218857000000       17.686400000000
 Li        15.026500000000        3.172870000000       17.686400000000
 Li        13.022500000000        3.435460000000       19.270700000000
 Li        10.589200000000        4.571540000000       19.085700000000
 Li        10.783200000000        1.633440000000       19.132500000000
 Li        11.407400000000        0.000000000000       16.472700000000
 Li        11.223600000000        0.185496000000       20.480200000000
 Cr        14.172600000000        1.732110000000       20.564600000000
 Cr        11.407400000000        3.293020000000       16.219400000000
 N         15.881300000000        1.615590000000       21.326200000000
 N         14.120700000000        1.638540000000       18.921400000000
 N          9.748720000000        3.392740000000       15.688200000000
 N         12.150300000000        1.806730000000       15.688200000000
 N         12.323000000000        4.679590000000       15.688200000000
 N         13.261000000000        0.407814000000       21.193800000000
 N         13.438400000000        3.056970000000       21.054700000000
 N         11.407400000000        3.293020000000       17.962100000000
 O         11.389100000000        0.050239300000       18.474000000000
 Li        15.723400000000        1.538840000000       23.209400000000
 Li        13.674200000000        3.035020000000       23.611100000000
 Li        13.258500000000        0.204630000000       23.637900000000
 Li        10.007900000000        3.525140000000       30.476300000000
 Li        12.172500000000        2.106190000000       30.771500000000
 Li        12.531900000000        4.716500000000       30.251500000000
 Li        12.938900000000        1.729550000000       26.425300000000
 Li        15.129600000000        0.503756000000       26.342300000000
 Li        14.956300000000        3.308160000000       26.170700000000
 Li        13.247100000000        3.441950000000       27.796800000000
 Li        10.876500000000        4.849240000000       27.871100000000
 Li        10.756300000000        1.902800000000       27.997500000000
 Li         9.975140000000        0.467710000000       26.271000000000
 Li        11.235300000000        0.128547000000       29.066800000000
 Cr        14.432800000000        1.795450000000       29.567900000000
 Cr        11.524300000000        3.357830000000       24.894600000000
 N         16.034900000000        1.717150000000       30.145600000000
 N         14.383700000000        1.818770000000       27.883000000000
 N          9.951030000000        3.274160000000       24.274100000000
 N         12.260900000000        1.971360000000       24.222700000000
 N         12.340000000000        4.764410000000       24.181500000000
 N         13.463300000000        0.500959000000       30.253200000000
 N         13.593600000000        3.296180000000       29.837600000000
 N         11.520600000000        3.466940000000       26.859700000000
 O         11.464400000000        0.063368400000       27.254300000000
 Li        12.992900000000        6.433470000000       15.000000000000
 Li        10.746700000000        8.035430000000       15.000000000000
 Li        10.482500000000        5.289240000000       15.000000000000
 Li         7.226140000000        8.454000000000       22.077800000000
 Li         9.178210000000        6.736090000000       21.904500000000
 Li         9.365190000000        9.665640000000       21.986600000000
 Li         9.701860000000        6.487340000000       17.686400000000
 Li        12.345600000000        5.158390000000       17.686400000000
 Li        12.174600000000        8.112400000000       17.686400000000
 Li        10.202500000000        8.424650000000       19.151100000000
 Li         7.487860000000        9.499350000000       19.156900000000
 Li         8.020570000000        6.636610000000       19.030800000000
 Li         8.555520000000        4.939530000000       16.472700000000
 Li         8.506120000000        4.943390000000       20.579200000000
 Cr        11.391100000000        6.709110000000       20.858700000000
 Cr         8.555520000000        8.232550000000       16.219400000000
 N         13.103800000000        6.539270000000       21.201100000000
 N         11.317700000000        6.765540000000       19.015500000000
 N          6.896880000000        8.332270000000       15.688200000000
 N          9.298480000000        6.746270000000       15.688200000000
 N          9.471200000000        9.619120000000       15.688200000000
 N         10.519400000000        5.213470000000       21.311300000000
 N         10.658600000000        8.064450000000       21.503600000000
 N          8.555520000000        8.232550000000       17.962100000000
 O          8.948770000000        4.885480000000       18.319000000000
 Li        12.781700000000        6.698530000000       23.504600000000
 Li        10.843700000000        8.388980000000       23.537500000000
 Li        10.457100000000        5.500700000000       23.313700000000
 Li         6.896520000000        8.713730000000       30.543200000000
 Li         9.294050000000        6.878400000000       30.458700000000
 Li         9.591240000000        9.796150000000       30.649600000000
 Li         9.705260000000        6.396900000000       26.342500000000
 Li        12.551900000000        5.140220000000       26.276200000000
 Li        11.815200000000        7.921000000000       25.962200000000
 Li        10.739800000000        8.509720000000       27.875300000000
 Li         7.700610000000        9.759670000000       28.184600000000
 Li         7.569570000000        6.979050000000       27.492100000000
 Li         8.499230000000        4.719090000000       24.749300000000
 Li         8.677850000000        5.291070000000       28.959600000000
 Cr        11.479000000000        6.742120000000       29.256700000000
 Cr         8.745800000000        8.301040000000       24.828800000000
 N         13.191100000000        6.478760000000       29.771600000000
 N         11.499300000000        6.699620000000       27.454700000000
 N          7.079430000000        8.468970000000       24.089600000000
 N          9.412910000000        6.854820000000       24.283400000000
 N          9.579220000000        9.684170000000       24.169000000000
 N         10.522100000000        5.407420000000       29.819300000000
 N         10.761300000000        8.153920000000       29.723300000000
 N          8.668650000000        8.378640000000       26.522800000000
 O          8.558240000000        5.023430000000       26.852400000000
